[General]
network = Network
sim-time-limit = 10s
record-eventlog = true

**.scalar-recording = false
**.vector-recording = false

**.csmacdSupport = false

**.hostA.mac.address = "00:00:00:00:00:0A"
**.hostB.mac.address = "00:00:00:00:00:0B"
**.hostC.mac.address = "00:00:00:00:00:0C"
**.hostD.mac.address = "00:00:00:00:00:0D"

[Config AppearingHost]

**.hostA.cli.destAddress = "hostD"
**.hostA.cli.startTime = 0s
**.hostA.cli.sendInterval = 1s

**.hostD.cli.destAddress = "hostB"
**.hostD.cli.startTime = 5s
**.hostD.cli.sendInterval = 9999s

**.cli.respLength = 0


[Config ReconnectHost]

**.scenarioManager.script = xmldoc("switching_scenario.xml")

**.hostA.cli.destAddress = "hostD"
**.hostA.cli.startTime = 0s
**.hostA.cli.sendInterval = 7s

**.hostB.cli.destAddress = "hostD"
**.hostB.cli.startTime = 2s
**.hostB.cli.sendInterval = 9999s

**.hostC.cli.destAddress = "hostD"
**.hostC.cli.startTime = 3s
**.hostC.cli.sendInterval = 5.1s

**.hostD.cli.destAddress = "hostB"
**.hostD.cli.startTime = 1s
**.hostD.cli.sendInterval = 7s

**.cli.respLength = 0
